63
10/18/2025 13:55, XYZ structure generated by mol3D Class, molSimplify
Ni 	0.000000	0.000000	0.000000
C 	3.751633	-2.874804	3.766947
C 	3.993238	-1.518619	3.622189
C 	3.035348	-0.847455	2.825925
C 	2.201376	-1.445160	1.994507
C 	2.057870	-2.796632	2.144100
C 	2.868652	-3.502942	2.999467
C 	1.441875	-0.672251	0.928594
C 	0.061205	-0.689230	0.952395
C 	-0.651477	-0.002934	-0.033997
C 	0.078270	0.687818	-0.993180
C 	1.452737	0.672251	-0.928594
N 	2.140000	0.000000	0.000000
C 	2.230884	1.461615	-1.968687
C 	2.976398	0.703066	-2.856029
C 	3.794509	1.469849	-3.719040
C 	3.636405	2.760427	-3.950181
C 	2.833283	3.440626	-3.077383
C 	2.103664	2.774389	-2.122564
H 	4.286626	-3.426738	4.511293
H 	4.828472	-1.023443	4.071729
H 	2.983049	0.218501	2.902759
H 	1.303316	-3.311639	1.587039
H 	2.787803	-4.568798	3.047579
H 	-0.458484	-1.223632	1.720013
H 	-1.721339	-0.009158	-0.050053
H 	-0.421767	1.224874	-1.771918
H 	2.937191	-0.365792	-2.886141
H 	4.597094	0.969221	-4.219168
H 	4.111266	3.247583	-4.776066
H 	2.772086	4.507108	-3.138795
H 	1.426826	3.318330	-1.497330
C 	-3.751633	-4.003355	2.535257
C 	-3.993238	-3.740850	1.196869
C 	-3.035348	-2.889076	0.597721
C 	-2.201376	-2.112965	1.265672
C 	-2.057870	-2.379875	2.598944
C 	-2.868652	-3.293593	3.227949
C 	-1.441875	-0.983694	0.588688
C 	-0.061205	-1.008885	0.603526
C 	0.651477	0.033611	0.005888
C 	-0.078270	1.049392	-0.598561
C 	-1.452737	0.983694	-0.588688
N 	-2.140000	0.000000	0.000000
C 	-2.230884	2.088678	-1.284317
C 	-2.976398	2.906471	-0.451256
C 	-3.794509	3.833078	-1.139837
C 	-3.636405	4.175914	-2.405334
C 	-2.833283	3.365776	-3.159073
C 	-2.103664	2.356482	-2.578664
H 	-4.286626	-4.793009	3.020159
H 	-4.828472	-4.145482	0.664368
H 	-2.983049	-2.872635	-0.470874
H 	-1.303316	-1.869862	3.160579
H 	-2.787803	-3.434495	4.285545
H 	0.458484	-1.820193	1.068932
H 	1.721339	0.049064	0.013489
H 	0.421767	1.872009	-1.065642
H 	-2.937191	2.843232	0.616154
H 	-4.597094	4.287631	-0.597491
H 	-4.111266	5.041145	-2.818591
H 	-2.772086	3.519983	-4.216133
H 	-1.426826	1.781078	-3.175070
