46
10/18/2025 23:23, XYZ structure generated by mol3D Class, molSimplify
Ni 	0.000000	0.000000	0.000000
N 	4.283299	-0.439280	0.285281
C 	3.549290	-1.566840	0.365096
N 	2.259245	-1.377522	0.189870
C 	2.140000	-0.000000	0.000000
C 	1.016038	0.775771	-0.256840
C 	1.193587	2.126924	-0.437580
C 	2.444306	2.711426	-0.345506
C 	3.573686	1.959105	-0.093217
C 	3.395747	0.601751	0.066970
H 	5.297210	-0.366453	0.369427
H 	3.977205	-2.529194	0.553946
H 	0.042573	0.335091	-0.312209
H 	0.344628	2.741001	-0.654556
H 	2.538059	3.769700	-0.472650
H 	4.542256	2.408706	-0.025162
N 	-1.752832	3.933929	0.269777
C 	-0.407515	3.863089	0.310192
N 	0.068358	2.648218	0.141679
C 	-1.070000	1.853294	0.000000
C 	-1.187210	0.487784	-0.229610
C 	-2.450867	-0.036774	-0.363084
C 	-3.579329	0.755915	-0.250668
C 	-3.485262	2.114320	-0.024788
C 	-2.216664	2.641279	0.087930
H 	-2.320276	4.777079	0.356413
H 	0.217151	4.717853	0.465341
H 	-0.320743	-0.136022	-0.300325
H 	-2.564428	-1.082631	-0.558498
H 	-4.545982	0.306073	-0.340802
H 	-4.356619	2.729650	0.058916
N 	-2.538385	-3.480390	0.253944
C 	-3.150319	-2.279530	0.254909
N 	-2.331156	-1.262857	0.093316
C 	-1.070000	-1.853294	0.000000
C 	0.177698	-1.275814	-0.202099
C 	1.267124	-2.109810	-0.288147
C 	1.141162	-3.481293	-0.155525
C 	-0.088710	-4.075320	0.043671
C 	-1.182057	-3.238610	0.108783
H 	-2.987508	-4.391853	0.342964
H 	-4.207077	-2.163522	0.376169
H 	0.287065	-0.214896	-0.288074
H 	2.235222	-1.688449	-0.461759
H 	2.016226	-4.094768	-0.208538
H 	-0.188690	-5.136006	0.142923
