49
10/18/2025 13:53, XYZ structure generated by mol3D Class, molSimplify
Ni 	0.000000	0.000000	0.000000
N 	-0.000000	2.140000	-0.000000
C 	1.351935	2.513537	-0.009707
C 	1.709473	3.844038	-0.253251
C 	3.046961	4.199522	-0.433389
C 	4.031044	3.215425	-0.434131
C 	3.675685	1.877823	-0.254644
C 	2.345381	1.520183	-0.010185
N 	1.971847	0.168153	-0.000000
H 	-0.624618	2.889084	0.276790
H 	-0.200359	1.276700	0.480161
H 	0.944651	4.612535	-0.318053
H 	3.314031	5.237895	-0.609488
H 	5.069301	3.482617	-0.610735
H 	4.444183	1.113075	-0.320239
H 	2.722103	-0.456233	0.274226
H 	1.111070	-0.031945	0.484871
N 	0.000000	-2.140000	0.000000
C 	-0.009707	-2.513537	1.351935
C 	-0.253251	-3.844038	1.709473
C 	-0.433389	-4.199522	3.046961
C 	-0.434131	-3.215425	4.031044
C 	-0.254644	-1.877823	3.675685
C 	-0.010185	-1.520183	2.345381
N 	0.000000	-0.168153	1.971847
H 	0.276790	-2.889084	-0.624618
H 	0.480161	-1.276700	-0.200359
H 	-0.318053	-4.612535	0.944651
H 	-0.609488	-5.237895	3.314031
H 	-0.610735	-3.482617	5.069301
H 	-0.320239	-1.113075	4.444183
H 	0.274226	0.456233	2.722103
H 	0.484871	0.031945	1.111070
N 	-2.140000	0.000000	0.000000
C 	-2.513537	-0.009707	-1.351935
C 	-3.844038	-0.253251	-1.709473
C 	-4.199522	-0.433389	-3.046961
C 	-3.215425	-0.434131	-4.031044
C 	-1.877823	-0.254644	-3.675685
C 	-1.520183	-0.010185	-2.345381
N 	-0.168153	-0.000000	-1.971847
H 	-2.889084	0.276790	0.624618
H 	-1.276700	0.480161	0.200359
H 	-4.612535	-0.318053	-0.944651
H 	-5.237895	-0.609488	-3.314031
H 	-3.482617	-0.610735	-5.069301
H 	-1.113075	-0.320239	-4.444183
H 	0.456233	0.274226	-2.722103
H 	0.031945	0.484871	-1.111070
