34
10/05/2025 00:06, XYZ structure generated by mol3D Class, molSimplify
Ni 	0.000000	0.000000	0.000000
S 	0.000000	2.310683	-0.000000
C 	1.578697	1.852797	-0.024800
N 	1.760911	0.549772	-0.000000
C 	3.054428	0.128510	-0.019300
C 	4.172247	0.876004	-0.060573
C 	3.988347	2.302681	-0.088072
C 	2.740931	2.794545	-0.071354
H 	3.231894	-0.946963	0.000570
H 	5.163670	0.445955	-0.072994
H 	4.854729	2.947312	-0.121505
H 	2.539480	3.856235	-0.090388
S 	0.000000	-2.310683	0.000000
C 	-0.024800	-1.852797	1.578697
N 	0.000000	-0.549772	1.760911
C 	-0.019300	-0.128510	3.054428
C 	-0.060573	-0.876004	4.172247
C 	-0.088072	-2.302681	3.988347
C 	-0.071354	-2.794545	2.740931
H 	0.000570	0.946963	3.231894
H 	-0.072994	-0.445955	5.163670
H 	-0.121505	-2.947312	4.854729
H 	-0.090388	-3.856235	2.539480
S 	-2.310683	0.000000	0.000000
C 	-1.852797	-0.024800	-1.578697
N 	-0.549772	-0.000000	-1.760911
C 	-0.128510	-0.019300	-3.054428
C 	-0.876004	-0.060573	-4.172247
C 	-2.302681	-0.088072	-3.988347
C 	-2.794545	-0.071354	-2.740931
H 	0.946963	0.000570	-3.231894
H 	-0.445955	-0.072994	-5.163670
H 	-2.947312	-0.121505	-4.854729
H 	-3.856235	-0.090388	-2.539480
