46
10/18/2025 22:09, XYZ structure generated by mol3D Class, molSimplify
Ni 	0.000000	0.000000	0.000000
C 	3.295882	-1.521340	0.002453
C 	3.114775	-0.032958	-0.010645
C 	4.225925	0.804886	-0.035125
C 	4.024732	2.180941	-0.048474
C 	2.725750	2.676483	-0.037691
C 	1.677464	1.770572	-0.013812
S 	0.000000	2.282194	-0.000000
N 	1.844533	0.437662	-0.000000
H 	2.327694	-2.031455	0.032828
H 	3.824023	-1.845542	-0.899586
H 	3.868659	-1.825050	0.884168
H 	5.231447	0.396416	-0.043754
H 	4.871590	2.860789	-0.067436
H 	2.541995	3.745155	-0.048092
H 	-0.476234	1.030184	0.020163
C 	0.002453	1.521340	3.295882
C 	-0.010645	0.032958	3.114775
C 	-0.035125	-0.804886	4.225925
C 	-0.048474	-2.180941	4.024732
C 	-0.037691	-2.676483	2.725750
C 	-0.013812	-1.770572	1.677464
S 	-0.000000	-2.282194	0.000000
N 	-0.000000	-0.437662	1.844533
H 	0.032828	2.031455	2.327694
H 	-0.899586	1.845542	3.824023
H 	0.884168	1.825050	3.868659
H 	-0.043754	-0.396416	5.231447
H 	-0.067436	-2.860789	4.871590
H 	-0.048092	-3.745155	2.541995
H 	0.020163	-1.030184	-0.476234
C 	1.521340	0.002453	-3.295882
C 	0.032958	-0.010645	-3.114775
C 	-0.804886	-0.035125	-4.225925
C 	-2.180941	-0.048474	-4.024732
C 	-2.676483	-0.037691	-2.725750
C 	-1.770572	-0.013812	-1.677464
S 	-2.282194	0.000000	0.000000
N 	-0.437662	0.000000	-1.844533
H 	2.031455	0.032828	-2.327694
H 	1.845542	-0.899586	-3.824023
H 	1.825050	0.884168	-3.868659
H 	-0.396416	-0.043754	-5.231447
H 	-2.860789	-0.067436	-4.871590
H 	-3.745155	-0.048092	-2.541995
H 	-1.030184	0.020163	0.476234
