46
Properties=species:S:1:pos:R:3 10/18/2025=T 13:53,=T XYZ=T structure=T generated=T by=T mol3D=T Class,=T molSimplify=T pbc="F F F"
Ni       0.00000000       0.00000000       0.00000000
N        0.00000000       2.14000000       0.00000000
C        1.32655400       2.61825700      -0.02878300
C        1.56264500       3.99043300       0.11258600
C        2.86607500       4.48613800       0.19509200
C        3.94838200       3.60980800       0.17917800
C        3.72744300       2.23476900       0.10475200
C        2.42230400       1.73508700       0.02899200
S        2.17516200      -0.03516200       0.00000000
H       -0.67004300       2.80123200      -0.38081100
H       -0.07563700       1.22733400      -0.44525600
H        0.72983800       4.68737700       0.15512100
H        3.03413200       5.55649900       0.28360100
H        4.96278100       3.99452000       0.24611700
H        4.57735300       1.55699700       0.12290000
H        1.24086900      -0.03800900       0.96341100
N        0.00000000      -2.14000000       0.00000000
C       -0.02878300      -2.61825700       1.32655400
C        0.11258600      -3.99043300       1.56264500
C        0.19509200      -4.48613800       2.86607500
C        0.17917800      -3.60980800       3.94838200
C        0.10475200      -2.23476900       3.72744300
C        0.02899200      -1.73508700       2.42230400
S       -0.00000000       0.03516200       2.17516200
H       -0.38081100      -2.80123200      -0.67004300
H       -0.44525600      -1.22733400      -0.07563700
H        0.15512100      -4.68737700       0.72983800
H        0.28360100      -5.55649900       3.03413200
H        0.24611700      -3.99452000       4.96278100
H        0.12290000      -1.55699700       4.57735300
H        0.96341100       0.03800900       1.24086900
N       -2.14000000       0.00000000       0.00000000
C       -2.61825700      -0.02878300      -1.32655400
C       -3.99043300       0.11258600      -1.56264500
C       -4.48613800       0.19509200      -2.86607500
C       -3.60980800       0.17917800      -3.94838200
C       -2.23476900       0.10475200      -3.72744300
C       -1.73508700       0.02899200      -2.42230400
S        0.03516200      -0.00000000      -2.17516200
H       -2.80123200      -0.38081100       0.67004300
H       -1.22733400      -0.44525600       0.07563700
H       -4.68737700       0.15512100      -0.72983800
H       -5.55649900       0.28360100      -3.03413200
H       -3.99452000       0.24611700      -4.96278100
H       -1.55699700       0.12290000      -4.57735300
H        0.03800900       0.96341100      -1.24086900
