73
Properties=species:S:1:pos:R:3 10/18/2025=T 13:53,=T XYZ=T structure=T generated=T by=T mol3D=T Class,=T molSimplify=T pbc="F F F"
Ni       0.00000000       0.00000000       0.00000000
H       -0.08772300       2.22929100       0.03356400
Br      -0.07994100       2.09313900      -0.06415400
N        0.00000000       2.14000000       0.00000000
C       -0.63748500       2.82129400      -1.13593600
C        0.02555400       2.37769000      -2.42976500
Br      -0.17440800       0.43874800      -2.63499600
H       -0.10405900       1.13095800      -0.10679900
H        0.99133400       2.37862200       0.02677300
H       -1.67741300       2.57097200      -1.16402400
H       -0.52832300       3.87979800      -1.02389700
H       -0.43846500       2.87360000      -3.25660200
H        1.06548200       2.62801200      -2.40167700
H        2.22929100      -0.04107500      -0.08446700
Br       2.09313900      -0.10220100      -0.00783200
N        2.14000000       0.00000000       0.00000000
C        2.82129400      -1.24182700       0.39319700
C        2.37769000      -1.64246500       1.79073300
Br       0.43874800      -1.92870500       1.80380700
H        1.13095800      -0.14895600       0.00680300
H        2.37862200       0.74178700       0.65818800
H        2.57097200      -2.01997700      -0.29725300
H        3.87979800      -1.08556400       0.38605900
H        2.87360000      -2.54637900       2.07693700
H        2.62801200      -0.86431400       2.48118200
H       -0.02732900      -2.22929100      -0.08986100
Br      -0.09971000      -2.09313900      -0.02375300
N       -0.00000000      -2.14000000       0.00000000
C       -1.28810600      -2.82129400       0.19370600
C       -1.90282800      -2.37769000       1.51117800
Br      -2.18758000      -0.43874800       1.47922800
H       -0.14818200      -1.13095800      -0.01662700
H        0.62946200      -2.37862200       0.76631400
H       -1.94842400      -2.57097200      -0.61017100
H       -1.13265500      -3.87979800       0.21114800
H       -2.84042800      -2.87360000       1.65217400
H       -1.24250800      -2.62801200       2.31505400
H       -2.22929100       0.06176300      -0.07076200
Br      -2.09313900       0.10068500       0.01920600
N       -2.14000000       0.00000000       0.00000000
C       -2.82129400       1.09551300       0.70469100
C       -2.37769000       1.11617300       2.15837200
Br      -0.43874800       1.38899900       2.24595300
H       -1.13095800       0.14197600       0.04557500
H       -2.37862200      -0.88826800       0.44095300
H       -2.57097200       2.02732400       0.24212500
H       -3.87979800       0.94657300       0.65688000
H       -2.87360000       1.91358600       2.67131000
H       -2.62801200       0.18436100       2.62093800
H        0.05304700       0.07751100       2.22929100
Br       0.10224200      -0.00727800       2.09313900
N        0.00000000       0.00000000       2.14000000
C        1.17052500      -0.57149800       2.82129400
C        1.36134400      -2.01274800       2.37769000
Br       1.64255100      -2.06776400       0.43874800
H        0.14633800      -0.02862800       1.13095800
H       -0.83049300      -0.54197900       2.37862200
H        2.04172900      -0.00295300       2.57097200
H        1.01700900      -0.54146400       3.87979800
H        2.21335800      -2.42873600       2.87360000
H        0.49013900      -2.58129200       2.62801200
H       -0.04860700      -0.08037000      -2.22929100
Br       0.04894000      -0.09006200      -2.09313900
N        0.00000000       0.00000000      -2.14000000
C        1.00469200      -0.82905500      -2.82129400
C        2.39569300      -0.40628800      -2.37769000
Br       2.56215600      -0.63951400      -0.43874800
H        0.08662500      -0.12136900      -1.13095800
H        0.14967600       0.98033500      -2.37862200
H        0.84768000      -1.85744500      -2.57097200
H        0.91381700      -0.70173400      -3.87979800
H        3.12699800      -1.00974900      -2.87360000
H        2.55270300       0.62210300      -2.62801200
