40
10/18/2025 22:02, XYZ structure generated by mol3D Class, molSimplify
Ni 	0.000000	0.000000	0.000000
C 	0.284533	4.735937	-0.067317
C 	-0.442396	3.605819	-0.046569
N 	0.000000	2.322543	0.000000
C 	1.307643	2.159578	0.021340
S 	1.754139	0.568404	0.000000
C 	2.254579	3.354381	0.024764
C 	1.714263	4.582521	-0.033568
N 	3.620545	3.096045	0.025877
H 	-0.163158	5.718909	-0.103637
H 	-1.521050	3.763913	-0.069726
H 	2.328602	5.471069	-0.045010
H 	4.076692	3.666591	-0.675196
H 	3.730043	2.100641	-0.179711
C 	-0.067317	-4.735937	0.284533
C 	-0.046569	-3.605819	-0.442396
N 	-0.000000	-2.322543	0.000000
C 	0.021340	-2.159578	1.307643
S 	-0.000000	-0.568404	1.754139
C 	0.024764	-3.354381	2.254579
C 	-0.033568	-4.582521	1.714263
N 	0.025877	-3.096045	3.620545
H 	-0.103637	-5.718909	-0.163158
H 	-0.069726	-3.763913	-1.521050
H 	-0.045010	-5.471069	2.328602
H 	-0.675196	-3.666591	4.076692
H 	-0.179711	-2.100641	3.730043
C 	-4.735937	-0.067317	-0.284533
C 	-3.605819	-0.046569	0.442396
N 	-2.322543	0.000000	0.000000
C 	-2.159578	0.021340	-1.307643
S 	-0.568404	0.000000	-1.754139
C 	-3.354381	0.024764	-2.254579
C 	-4.582521	-0.033568	-1.714263
N 	-3.096045	0.025877	-3.620545
H 	-5.718909	-0.103637	0.163158
H 	-3.763913	-0.069726	1.521050
H 	-5.471069	-0.045010	-2.328602
H 	-3.666591	-0.675196	-4.076692
H 	-2.100641	-0.179711	-3.730043
