181
Properties=species:S:1:pos:R:3 10/18/2025=T 13:56,=T XYZ=T structure=T generated=T by=T mol3D=T Class,=T molSimplify=T pbc="F F F"
Ni       0.00000000       0.00000000       0.00000000
C       -1.61487900       2.77178700      -1.78798700
C       -0.16644500       2.86889800      -1.33742300
C        0.70813800       2.22636100      -2.40168400
C        0.26346000       4.32821800      -1.17039700
C       -0.51455500       4.93833100      -0.13838400
O       -1.87715300       4.78401200      -0.50704600
C       -0.36288500       4.32766500       1.14435900
C       -0.81812400       2.86828100       1.07096600
C       -2.29447500       2.81045500       0.71397200
C       -0.60172000       2.19951800       2.41867700
N        0.00000000       2.14000000       0.00000000
H       -2.07170600       1.91520000      -1.33802300
H       -1.65148800       2.67729700      -2.85317800
H       -2.14106800       3.65450400      -1.48993300
H        0.42890700       1.20036500      -2.52111700
H        0.57717700       2.74203000      -3.33003500
H        1.73399000       2.28437600      -2.10308500
H        1.29966800       4.36706400      -0.90645800
H        0.11008700       4.85284900      -2.09025500
H       -0.22179300       5.96442300      -0.05885700
H       -2.09802800       3.81056100      -0.56710800
H       -0.95892800       4.85182300       1.86191900
H        0.66513100       4.36635000       1.43861300
H       -2.60913300       1.78908500       0.66206900
H       -2.86282000       3.32112800       1.46303500
H       -2.45074400       3.28044600      -0.23449500
H        0.43716500       2.23599800       2.67222800
H       -1.16961400       2.71235100       3.16660700
H       -0.92037500       1.17943200       2.36591400
H        0.98456900       2.13513400       0.26645700
C        2.77178700      -1.48622200       1.89628000
C        2.86889800      -0.07274500       1.34577600
C        2.22636100       0.87394600       2.34643700
C        4.32821800       0.34446100       1.14916800
C        4.93833100      -0.50364800       0.17394000
O        4.78401200      -1.83721100       0.63675400
C        4.32766500      -0.44182800      -1.11625800
C        2.86828100      -0.89083800      -1.01128800
C        2.81045500      -2.33869000      -0.55217800
C        2.19951800      -0.76897300      -2.37081200
N        2.14000000       0.00000000       0.00000000
H        1.91520000      -1.97332300       1.47927800
H        2.67729700      -1.44843700       2.96142900
H        3.65450400      -2.03192000       1.63565700
H        1.20036500       0.60372600       2.48505600
H        2.74203000       0.80806200       3.28166100
H        2.28437600       1.87647000       1.97700500
H        4.36706400       1.35973300       0.81359000
H        4.85284900       0.25562700       2.07748400
H        5.96442300      -0.21714700       0.07418500
H        3.81056100      -2.05335800       0.71207800
H        4.85182300      -1.08647300      -1.79049200
H        4.36635000       0.56315800      -1.48150600
H        1.78908500      -2.64896100      -0.47845200
H        3.32112800      -2.95790300      -1.25977100
H        3.28044600      -2.42841700       0.40487900
H        2.23599800       0.24969400      -2.69621400
H        2.71235100      -1.38765600      -3.07730500
H        1.17943200      -1.08317100      -2.29594900
H        2.13513400       0.96358400      -0.33448800
C       -2.16708200      -2.77178700       1.05284800
C       -0.65533300      -2.86889800       1.17768600
C       -0.24311300      -2.22636100       2.49207600
C       -0.19416300      -4.32821800       1.18386700
C       -0.52892600      -4.93833100      -0.06444900
O       -1.93040900      -4.78401200      -0.23306900
C        0.09222300      -4.32766500      -1.19697100
C       -0.35736100      -2.86828100      -1.29945700
C       -1.85994200      -2.81045500      -1.52150800
C        0.34814700      -2.19951800      -2.46796700
N        0.00000000      -2.14000000       0.00000000
H       -2.42208400      -1.91520000       0.46451900
H       -2.60005200      -2.67729700       2.02676200
H       -2.54330300      -3.65450400       0.57938400
H       -0.54675100      -1.20036500       2.49821000
H       -0.71230400      -2.74203000       3.30376900
H        0.81989800      -2.28437600       2.59951100
H        0.86546600      -4.36706400       1.32731800
H       -0.68095300      -4.85284900       1.97929000
H       -0.22769100      -5.96442300      -0.02851400
H       -2.15770000      -3.81056100      -0.26012100
H       -0.19161500      -4.85182300      -2.08556100
H        1.15561300      -4.36635000      -1.08469600
H       -2.17113100      -1.78908500      -1.59125800
H       -2.10629800      -3.32112800      -2.42893400
H       -2.36013400      -3.28044600      -0.70064500
H        1.40636600      -2.23599800      -2.31388200
H        0.10178400      -2.71235100      -3.37417200
H        0.03293000      -1.17943200      -2.53841600
H        1.01269300      -2.13513400       0.12177100
C       -2.77178700       1.61487900       1.78798700
C       -2.86889800       0.16644500       1.33742300
C       -2.22636100      -0.70813800       2.40168400
C       -4.32821800      -0.26346000       1.17039700
C       -4.93833100       0.51455500       0.13838400
O       -4.78401200       1.87715300       0.50704600
C       -4.32766500       0.36288500      -1.14435900
C       -2.86828100       0.81812400      -1.07096600
C       -2.81045500       2.29447500      -0.71397200
C       -2.19951800       0.60172000      -2.41867700
N       -2.14000000       0.00000000       0.00000000
H       -1.91520000       2.07170600       1.33802300
H       -2.67729700       1.65148800       2.85317800
H       -3.65450400       2.14106800       1.48993300
H       -1.20036500      -0.42890700       2.52111700
H       -2.74203000      -0.57717700       3.33003500
H       -2.28437600      -1.73399000       2.10308500
H       -4.36706400      -1.29966800       0.90645800
H       -4.85284900      -0.11008700       2.09025500
H       -5.96442300       0.22179300       0.05885700
H       -3.81056100       2.09802800       0.56710800
H       -4.85182300       0.95892800      -1.86191900
H       -4.36635000      -0.66513100      -1.43861300
H       -1.78908500       2.60913300      -0.66206900
H       -3.32112800       2.86282000      -1.46303500
H       -3.28044600       2.45074400       0.23449500
H       -2.23599800      -0.43716500      -2.67222800
H       -2.71235100       1.16961400      -3.16660700
H       -1.17943200       0.92037500      -2.36591400
H       -2.13513400      -0.98456900      -0.26645700
C        2.40368700      -0.16438100       2.77178700
C        1.04878300      -0.84644000       2.86889800
C        1.15895900      -2.21954100       2.22636100
C        0.62350900      -1.02492700       4.32821800
C        0.46626900       0.25789500       4.93833100
O        1.70253400       0.93924200       4.78401200
C       -0.53390100       1.07526500       4.32766500
C       -0.15544600       1.33870500       2.86828100
C        1.15454100       2.10746400       2.81045500
C       -1.24731300       2.15784100       2.19951800
N        0.00000000       0.00000000       2.14000000
H        2.41972900       0.47663400       1.91520000
H        3.16996400      -0.90518400       2.67729700
H        2.57515000       0.41554200       3.65450400
H        1.44278500      -2.11148300       1.20036500
H        1.89805000      -2.79636700       2.74203000
H        0.21359800      -2.71736300       2.28437600
H       -0.30522400      -1.55487700       4.36706400
H        1.37282400      -1.58007600       4.85284900
H        0.20043000       0.11173200       5.96442300
H        1.90314100       1.04946900       3.81056100
H       -0.60360200       2.00547900       4.85182300
H       -1.47780000       0.57281300       4.36635000
H        1.41694100       2.28870900       1.78908500
H        1.04303100       3.04110100       3.32112800
H        1.92581200       1.53374900       3.28044600
H       -2.17075600       1.61856000       2.23599800
H       -1.35836000       3.09034900       2.71235100
H       -0.98144000       2.34124200       1.17943200
H       -0.89333700      -0.49226600       2.13513400
C       -0.03659400      -2.40902300      -2.77178700
C        0.75605300      -1.11570100      -2.86889800
C        2.11518800      -1.33997300      -2.22636100
C        0.96937500      -0.70678900      -4.32821800
C       -0.29587100      -0.44314400      -4.93833100
O       -1.07791700      -1.61830000      -4.78401200
C       -1.02700800       0.62169000      -4.32766500
C       -1.32108500       0.26651700      -2.86828100
C       -2.19638500      -0.97481600      -2.81045500
C       -2.04633600       1.42287600      -2.19951800
N        0.00000000      -0.00000000      -2.14000000
H       -0.67671500      -2.37156600      -1.91520000
H        0.63774400      -3.23439600      -2.67729700
H       -0.62879300      -2.53153900      -3.65450400
H        1.98384300      -1.61380200      -1.20036500
H        2.62838600      -2.12458300      -2.74203000
H        2.69009400      -0.43940900      -2.28437600
H        1.57491100       0.17452700      -4.36706400
H        1.46011900      -1.49977900      -4.85284900
H       -0.12805400      -0.19041700      -5.96442300
H       -1.20448500      -1.80901800      -3.81056100
H       -1.94817300       0.76870400      -4.85182300
H       -0.44761000       1.52041200      -4.36635000
H       -2.39887500      -1.22119200      -1.78908500
H       -3.11747400      -0.78585400      -3.32112800
H       -1.68896900      -1.79123400      -3.28044600
H       -1.43194300       2.29814200      -2.23599800
H       -2.96633900       1.61128200      -2.71235100
H       -2.25126500       1.17321900      -1.17943200
H        0.56503200       0.84918500      -2.13513400
