69
Properties=species:S:1:pos:R:3 10/18/2025=T 13:39,=T XYZ=T structure=T generated=T by=T mol3D=T Class,=T molSimplify=T pbc="F F F"
Ni       0.00000000       0.00000000       0.00000000
C        7.33500900       3.29476600      -1.11308300
O        5.97005600       3.61547200      -1.33769300
C        5.03510700       2.70504200      -0.98288000
C        3.71616600       3.07925500      -1.08083400
C        2.71652100       2.18222900      -0.75757600
C        3.03396400       0.91947200      -0.31920100
O        2.00000000       0.00000000       0.00000000
C        4.35261300       0.54286100      -0.18845800
C        5.38972500       1.42573500      -0.50714200
H        7.95589300       4.02465900      -1.58917200
H        7.54569400       2.32761800      -1.51945400
H        7.53196400       3.29036300      -0.06137600
H        3.46344900       4.06624700      -1.40776000
H        1.69061700       2.47215900      -0.84901100
H        2.22952300      -0.91947200       0.31920100
H        4.58716900      -0.44040400       0.16236000
H        6.41486300       1.14076900      -0.39406100
C       -5.47069300       5.84569700      -1.34020300
O       -5.30253400       4.45739100      -1.58663700
C       -4.15793700       3.87042500      -1.16918000
C       -4.06377000       2.50476100      -1.29299900
C       -2.90813700       1.85307600      -0.90795600
C       -1.85515900       2.56208700      -0.38256300
O       -0.66670700       1.88560400       0.00000000
C       -1.94912900       3.92751000      -0.22586700
C       -3.10424200       4.61912000      -0.60536000
H       -6.33282400       6.19941900      -1.86604700
H       -4.60459200       6.37539800      -1.67811900
H       -5.60137500       6.00839400      -0.29075000
H       -4.88629700       1.94588600      -1.68797800
H       -2.83281500       0.79156400      -1.01939200
H        0.10055600       2.40033900       0.38256300
H       -1.12562500       4.46746900       0.19268600
H       -3.18540000       5.67775500      -0.47267700
C       -2.14024000      -6.51033500       4.35105800
O       -1.75568600      -6.18729600       3.02284000
C       -1.48758600      -4.89359100       2.73412900
C       -0.98876300      -4.61286800       1.48448700
C       -0.72113400      -3.30649000       1.12366500
C       -0.93367400      -2.28381500       2.01611000
O       -0.66670600      -0.94279100       1.63298800
C       -1.40507800      -2.55578200       3.28164400
C       -1.68668500      -3.86675100       3.67999700
H       -2.47733600      -7.52517800       4.38794700
H       -2.93138100      -5.86021100       4.66143500
H       -1.30177400      -6.38903500       5.00463300
H       -0.80757100      -5.40689700       0.79052300
H       -0.34670500      -3.09020500       0.14492900
H       -0.82092600      -0.19736800       2.28149500
H       -1.55820900      -1.75161400       3.97067600
H       -2.04031100      -4.08260800       4.66653400
C       -0.06048900      -5.94632200      -5.52579400
O        0.72342900      -5.51497800      -4.42315400
C        0.33682800      -4.39882300      -3.76463900
C        1.02364600      -4.06711700      -2.62118500
C        0.69081200      -2.92358000      -1.92119500
C       -0.33875600      -2.12247800      -2.35214500
O       -0.66670600      -0.94279100      -1.63298800
C       -1.05383600      -2.46052800      -3.48004200
C       -0.74356300      -3.61098300      -4.21271500
H        0.45187600      -6.73079700      -6.04249600
H       -0.22041000      -5.12501500      -6.19271200
H       -1.00363300      -6.30818100      -5.17303700
H        1.81682500      -4.69518000      -2.27289800
H        1.23722100      -2.66065500      -1.03960100
H       -1.41584300      -0.35870600      -1.94546000
H       -1.85920100      -1.83324100      -3.80066300
H       -1.30554000      -3.88334300      -5.08156500
