34
10/18/2025 22:42, XYZ structure generated by mol3D Class, molSimplify
Ni 	0.000000	0.000000	0.000000
C 	3.999571	2.276063	0.027991
C 	2.739090	2.736009	0.022390
C 	1.586609	1.771385	0.007578
S 	-0.000000	2.274867	0.000000
N 	1.812877	0.461990	0.000000
C 	3.119857	0.076053	0.006443
C 	4.216083	0.854840	0.019561
Cl 	5.815581	0.234545	0.026411
H 	4.845797	2.947653	0.038610
H 	2.517535	3.794625	0.028247
H 	3.317321	-0.996039	0.000323
C 	0.027991	-2.276063	3.999571
C 	0.022390	-2.736009	2.739090
C 	0.007578	-1.771385	1.586609
S 	-0.000000	-2.274867	0.000000
N 	-0.000000	-0.461990	1.812877
C 	0.006443	-0.076053	3.119857
C 	0.019561	-0.854840	4.216083
Cl 	0.026411	-0.234545	5.815581
H 	0.038610	-2.947653	4.845797
H 	0.028247	-3.794625	2.517535
H 	0.000323	0.996039	3.317321
C 	-2.276063	0.027991	-3.999571
C 	-2.736009	0.022390	-2.739090
C 	-1.771385	0.007578	-1.586609
S 	-2.274867	0.000000	0.000000
N 	-0.461990	0.000000	-1.812877
C 	-0.076053	0.006443	-3.119857
C 	-0.854840	0.019561	-4.216083
Cl 	-0.234545	0.026411	-5.815581
H 	-2.947653	0.038610	-4.845797
H 	-3.794625	0.028247	-2.517535
H 	0.996039	0.000323	-3.317321
