37
10/18/2025 22:17, XYZ structure generated by mol3D Class, molSimplify
Ni 	0.000000	0.000000	0.000000
C 	3.985003	2.291212	-0.043179
C 	2.739864	2.791394	-0.029102
C 	1.575737	1.856781	-0.009865
S 	0.000000	2.299458	0.000000
N 	1.743573	0.555885	0.000000
C 	3.034738	0.119523	-0.016761
C 	4.166015	0.855880	-0.038728
C 	5.473443	0.290022	-0.056725
N 	6.553996	-0.140600	-0.072160
H 	4.850505	2.940356	-0.057581
H 	2.544035	3.854988	-0.031912
H 	3.184985	-0.961970	-0.012507
C 	-0.043179	-2.291212	3.985003
C 	-0.029102	-2.791394	2.739864
C 	-0.009865	-1.856781	1.575737
S 	0.000000	-2.299458	0.000000
N 	-0.000000	-0.555885	1.743573
C 	-0.016761	-0.119523	3.034738
C 	-0.038728	-0.855880	4.166015
C 	-0.056725	-0.290022	5.473443
N 	-0.072160	0.140600	6.553996
H 	-0.057581	-2.940356	4.850505
H 	-0.031912	-3.854988	2.544035
H 	-0.012507	0.961970	3.184985
C 	-2.291212	-0.043179	-3.985003
C 	-2.791394	-0.029102	-2.739864
C 	-1.856781	-0.009865	-1.575737
S 	-2.299458	0.000000	0.000000
N 	-0.555885	0.000000	-1.743573
C 	-0.119523	-0.016761	-3.034738
C 	-0.855880	-0.038728	-4.166015
C 	-0.290022	-0.056725	-5.473443
N 	0.140600	-0.072160	-6.553996
H 	-2.940356	-0.057581	-4.850505
H 	-3.854988	-0.031912	-2.544035
H 	0.961970	-0.012507	-3.184985
