57
Properties=species:S:1:pos:R:3 10/18/2025=T 13:53,=T XYZ=T structure=T generated=T by=T mol3D=T Class,=T molSimplify=T pbc="F F F"
Ni       0.00000000       0.00000000       0.00000000
N        2.14000000       0.00000000       0.00000000
C        3.48800300       0.00000000      -0.00000000
C        4.20579400       1.08340000       0.52736800
C        5.58880000       1.08374700       0.52425700
C        6.28099200      -0.00731700       0.00326700
C        5.58219300      -1.09568700      -0.52538100
C        4.20423400      -1.07833200      -0.54033000
H        1.63000000       0.79424700       0.38661600
H        1.63000000      -0.79424700      -0.38661600
H        3.67749100       1.91901600       0.93668700
H        6.12582800       1.91987400       0.92098400
H        7.35097200      -0.01183400       0.00798000
H        6.11391800      -1.93787000      -0.91639900
H        3.67211700      -1.90066700      -0.97104600
N       -0.71337700       2.01759600       0.00000000
C       -1.16273800       3.28849600      -0.00000000
C       -0.58544800       4.25395000       0.83769300
C       -1.04912200       5.55691600       0.83908300
C       -2.09325600       5.92192100      -0.00799300
C       -2.67961400       4.97340300      -0.84991800
C       -2.22791500       3.67155700      -0.82849700
H        0.05526500       1.74843000       0.61411700
H       -1.14199700       1.32510500      -0.61411700
H        0.22274800       3.97935600       1.48291900
H       -0.60704900       6.28283200       1.48909600
H       -2.44721900       6.93166100      -0.01385000
H       -3.47485500       5.25620800      -1.50757500
H       -2.69729000       2.94119700      -1.45392600
N       -0.71337500      -1.00878600       1.74729700
C       -1.16273600      -1.64422800       2.84793300
C       -0.61227200      -1.37210000       4.10889700
C       -1.07199100      -2.02670300       5.23711200
C       -2.10132300      -2.95900700       5.12636800
C       -2.66210800      -3.24189600       3.87823600
C       -2.18256600      -2.60292900       2.75527000
H        0.03559900      -0.32081900       1.82565300
H       -1.12233000      -1.21592900       0.83611700
H        0.17213100      -0.64995900       4.19903200
H       -0.63820500      -1.81764900       6.19263600
H       -2.46352600      -3.45991700       5.99975100
H       -3.45937300      -3.95063100       3.79478300
H       -2.59481000      -2.84196900       1.79724300
N       -0.71337500      -1.00878600      -1.74729700
C       -1.16273600      -1.64422800      -2.84793300
C       -2.50410300      -2.04088100      -2.95039800
C       -2.96349700      -2.69536900      -4.07881100
C       -2.09048300      -2.95517500      -5.13300600
C       -0.75108200      -2.56632900      -5.04849100
C       -0.29521100      -1.93573000      -3.91102800
H       -1.35131300      -0.81110600      -0.97635000
H        0.26458200      -0.72564200      -1.68542000
H       -3.17957600      -1.83482100      -2.14654800
H       -3.98684100      -3.00142500      -4.14203400
H       -2.44675700      -3.45398900      -6.01002000
H       -0.08309500      -2.75708300      -5.86231300
H        0.73712900      -1.66409600      -3.83762100
