97
10/18/2025 23:19, XYZ structure generated by mol3D Class, molSimplify
Ni 	0.000000	0.000000	0.000000
N 	2.140000	0.000000	0.000000
C 	2.875000	0.516343	-1.163643
C 	4.000323	-0.168399	-1.591829
C 	4.840398	0.585880	-2.444699
C 	4.469391	1.679274	-3.085682
C 	3.312615	2.270880	-2.659861
C 	2.504880	1.657458	-1.732947
C 	2.875000	-0.516343	1.163643
C 	3.908056	0.214771	1.726522
C 	4.649056	-0.495795	2.700208
C 	4.231092	-1.591888	3.306757
C 	3.163455	-2.231030	2.740101
C 	2.469263	-1.661183	1.700262
H 	1.120000	0.000000	0.000000
H 	4.214883	-1.176313	-1.303779
H 	5.846230	0.246796	-2.579697
H 	5.043190	2.080610	-3.894745
H 	3.032337	3.225290	-3.054127
H 	1.569130	2.103314	-1.467456
H 	4.125960	1.225222	1.450103
H 	5.615254	-0.118833	2.963384
H 	4.702591	-1.959999	4.193934
H 	2.864241	-3.188754	3.111766
H 	1.593783	-2.144312	1.319447
N 	-0.713377	2.017596	-0.000000
C 	-0.093968	3.016196	-0.883193
C 	0.131051	4.289352	-0.386194
C 	0.363381	5.262540	-1.386683
C 	0.702360	4.988879	-2.633366
C 	0.519954	3.697430	-3.043655
C 	0.165824	2.715478	-2.150204
C 	-1.822816	2.404914	0.883193
C 	-2.901621	3.119203	0.388686
C 	-3.782140	3.593826	1.389420
C 	-3.826736	3.134737	2.626863
C 	-2.762713	2.378543	3.033652
C 	-1.793814	1.984817	2.142525
H 	-0.373356	1.055938	0.000000
H 	0.129339	4.516324	0.659454
H 	0.257025	6.291789	-1.114221
H 	1.098453	5.737540	-3.287215
H 	0.654927	3.447871	-4.075354
H 	0.098780	1.699253	-2.478369
H 	-3.055195	3.296026	-0.655368
H 	-4.458939	4.379341	1.125203
H 	-4.651201	3.343329	3.276206
H 	-2.683418	2.089212	4.060735
H 	-1.008801	1.333786	2.466272
N 	-0.713375	-1.008786	1.747297
C 	-2.111736	-0.846196	2.170444
C 	-2.381179	-0.702719	3.521510
C 	-3.734295	-0.934698	3.864019
C 	-4.736157	-0.929431	3.003635
C 	-4.401498	-1.004650	1.680080
C 	-3.091041	-0.916947	1.276467
C 	0.194956	-1.864328	2.524396
C 	-0.185922	-3.143226	2.895768
C 	0.700910	-3.763555	3.807235
C 	1.942543	-3.371838	4.028415
C 	2.276485	-2.125219	3.576892
C 	1.411545	-1.403401	2.790284
H 	-0.373355	-0.527963	0.914473
H 	-1.633872	-0.440268	4.240921
H 	-3.961615	-1.127822	4.891603
H 	-5.754990	-0.869520	3.325021
H 	-5.171189	-1.133670	0.948076
H 	-2.857538	-0.905557	0.232318
H 	-1.070528	-3.618908	2.526853
H 	0.340470	-4.608822	4.355420
H 	2.649207	-3.996436	4.533789
H 	3.225037	-1.705718	3.839893
H 	1.721116	-0.461332	2.388325
N 	-0.713375	-1.008786	-1.747297
C 	-2.099463	-1.495425	-1.800628
C 	-2.342704	-2.738043	-2.362142
C 	-3.696143	-2.952965	-2.714367
C 	-4.711300	-2.244378	-2.254610
C 	-4.400483	-1.058342	-1.649496
C 	-3.094791	-0.718566	-1.389469
C 	0.182683	-1.215098	-2.894212
C 	-0.228448	-0.893552	-4.177234
C 	0.655018	-1.335896	-5.190086
C 	1.910756	-1.690290	-4.986264
C 	2.272753	-1.927801	-3.689346
C 	1.416092	-1.643924	-2.653277
H 	-0.373355	-0.527963	-0.914473
H 	-1.576617	-3.469107	-2.515625
H 	-3.912147	-3.744670	-3.400986
H 	-5.722650	-2.580351	-2.350492
H 	-5.185340	-0.385090	-1.374485
H 	-2.878062	0.180177	-0.850777
H 	-1.132149	-0.359137	-4.383694
H 	0.279562	-1.386802	-6.190757
H 	2.607429	-1.786391	-5.792682
H 	3.237040	-2.340681	-3.478203
H 	1.745845	-1.769544	-1.643137
