34
Properties=species:S:1:pos:R:3 10/18/2025=T 13:54,=T XYZ=T structure=T generated=T by=T mol3D=T Class,=T molSimplify=T pbc="F F F"
Ni       0.00000000       0.00000000       0.00000000
C        1.20066200       2.64569900       0.61435600
N        0.00000000       2.14000000      -0.00000000
H       -0.86203500       2.38267700       0.54041300
H       -0.06741400       2.47754500      -0.98952400
C        2.23976000       1.75937000      -0.00908200
H        1.16504600       2.43914400       1.71152100
H        1.36374900       3.73255200       0.45225400
O        1.66592800       0.47407200       0.00000000
H        1.84632400       0.09862300       0.90260300
H        2.39570100       2.05480700      -1.07197400
H        3.22283300       1.81417200       0.51003100
C        0.61435600      -2.64569900       1.20066200
N       -0.00000000      -2.14000000       0.00000000
H        0.54041300      -2.38267700      -0.86203500
H       -0.98952400      -2.47754500      -0.06741400
C       -0.00908200      -1.75937000       2.23976000
H        1.71152100      -2.43914400       1.16504600
H        0.45225400      -3.73255200       1.36374900
O       -0.00000000      -0.47407200       1.66592800
H        0.90260300      -0.09862300       1.84632400
H       -1.07197400      -2.05480700       2.39570100
H        0.51003100      -1.81417200       3.22283300
C       -2.64569900       0.61435600      -1.20066200
N       -2.14000000       0.00000000       0.00000000
H       -2.38267700       0.54041300       0.86203500
H       -2.47754500      -0.98952400       0.06741400
C       -1.75937000      -0.00908200      -2.23976000
H       -2.43914400       1.71152100      -1.16504600
H       -3.73255200       0.45225400      -1.36374900
O       -0.47407200       0.00000000      -1.66592800
H       -0.09862300       0.90260300      -1.84632400
H       -2.05480700      -1.07197400      -2.39570100
H       -1.81417200       0.51003100      -3.22283300
