49
Properties=species:S:1:pos:R:3 10/18/2025=T 13:53,=T XYZ=T structure=T generated=T by=T mol3D=T Class,=T molSimplify=T pbc="F F F"
Ni       0.00000000       0.00000000       0.00000000
N       -0.00000000       2.14000000      -0.00000000
C        1.35193500       2.51353700      -0.00970700
C        1.70947300       3.84403800      -0.25325100
C        3.04696100       4.19952200      -0.43338900
C        4.03104400       3.21542500      -0.43413100
C        3.67568500       1.87782300      -0.25464400
C        2.34538100       1.52018300      -0.01018500
N        1.97184700       0.16815300      -0.00000000
H       -0.62461800       2.88908400       0.27679000
H       -0.20035900       1.27670000       0.48016100
H        0.94465100       4.61253500      -0.31805300
H        3.31403100       5.23789500      -0.60948800
H        5.06930100       3.48261700      -0.61073500
H        4.44418300       1.11307500      -0.32023900
H        2.72210300      -0.45623300       0.27422600
H        1.11107000      -0.03194500       0.48487100
N        0.00000000      -2.14000000       0.00000000
C       -0.00970700      -2.51353700       1.35193500
C       -0.25325100      -3.84403800       1.70947300
C       -0.43338900      -4.19952200       3.04696100
C       -0.43413100      -3.21542500       4.03104400
C       -0.25464400      -1.87782300       3.67568500
C       -0.01018500      -1.52018300       2.34538100
N        0.00000000      -0.16815300       1.97184700
H        0.27679000      -2.88908400      -0.62461800
H        0.48016100      -1.27670000      -0.20035900
H       -0.31805300      -4.61253500       0.94465100
H       -0.60948800      -5.23789500       3.31403100
H       -0.61073500      -3.48261700       5.06930100
H       -0.32023900      -1.11307500       4.44418300
H        0.27422600       0.45623300       2.72210300
H        0.48487100       0.03194500       1.11107000
N       -2.14000000       0.00000000       0.00000000
C       -2.51353700      -0.00970700      -1.35193500
C       -3.84403800      -0.25325100      -1.70947300
C       -4.19952200      -0.43338900      -3.04696100
C       -3.21542500      -0.43413100      -4.03104400
C       -1.87782300      -0.25464400      -3.67568500
C       -1.52018300      -0.01018500      -2.34538100
N       -0.16815300      -0.00000000      -1.97184700
H       -2.88908400       0.27679000       0.62461800
H       -1.27670000       0.48016100       0.20035900
H       -4.61253500      -0.31805300      -0.94465100
H       -5.23789500      -0.60948800      -3.31403100
H       -3.48261700      -0.61073500      -5.06930100
H       -1.11307500      -0.32023900      -4.44418300
H        0.45623300       0.27422600      -2.72210300
H        0.03194500       0.48487100      -1.11107000
