157
Properties=species:S:1:pos:R:3 10/18/2025=T 13:56,=T XYZ=T structure=T generated=T by=T mol3D=T Class,=T molSimplify=T pbc="F F F"
Ni       0.00000000       0.00000000       0.00000000
C       -2.50265400       5.70704200       0.00907300
C       -2.90335600       5.28869100      -1.39621000
O       -3.02736600       3.87521800      -1.45203700
C       -1.90910300       3.05209000      -1.15480600
O       -0.79726800       3.58044800      -0.83881800
C       -2.04184600       1.53907700      -1.21456400
C       -2.64337900       0.92651100       0.04832600
C       -2.00389100       1.54428000       1.29048200
C       -0.48846000       1.47008200       1.20388000
N       -0.00000000       2.14000000       0.00000000
C       -0.53092700       1.45730400      -1.18691100
H       -3.25108800       5.38696000       0.70354800
H       -2.40921100       6.77212300       0.05114000
H       -1.56559100       5.25653900       0.26177800
H       -3.84041900       5.73919600      -1.64891400
H       -2.15492300       5.60877300      -2.09068400
H       -2.63584400       1.07521200      -1.97410100
H       -3.69541900       1.12112000       0.06379100
H       -2.46706200      -0.12886200       0.04777500
H       -2.29623300       2.57155900       1.35477400
H       -2.33323300       1.01119700       2.15780900
H       -0.07332100       1.96040400       2.05953400
H       -0.18911200       0.44311200       1.17891400
H        1.01938700       2.10897800      -0.01696900
H       -0.24087600       0.42794300      -1.15247700
H       -0.13705600       1.92258000      -2.06627600
C        5.70704200      -0.68110400      -2.40820700
C        5.28869100      -2.14239700      -2.40603800
O        3.87521800      -2.23024300      -2.50985600
C        3.05209000      -1.63629100      -1.51684000
O        3.58044800      -1.02608100      -0.53517400
C        1.53907700      -1.73032300      -1.62796900
C        0.92651100      -0.68216000      -2.55430000
C        1.54428000       0.68814300      -2.28196900
C        1.47008200       1.02260600      -0.80137200
N        2.14000000      -0.00000000       0.00000000
C        1.45730400      -1.28727500      -0.18320300
H        5.38696000      -0.21982700      -3.31907000
H        6.77212300      -0.61491000      -2.32997800
H        5.25653900      -0.17989900      -1.57709900
H        5.73919600      -2.64360100      -3.23714500
H        5.60877300      -2.60367200      -1.49517400
H        1.07521200      -2.62416500      -1.98960000
H        1.12112000      -0.95727600      -3.56984800
H       -0.12886200      -0.63409000      -2.38466100
H        2.57155900       0.66936500      -2.58070700
H        1.01119700       1.43109300      -2.83762000
H        1.96040400       1.95954100      -0.63816500
H        0.44311200       1.08111900      -0.50673900
H        2.10897800       0.26466900       0.98457500
H        0.42794300      -1.17422600       0.08612100
H        1.92258000      -2.02401000       0.43779700
C       -1.74501600      -5.70704200       1.79395600
C       -1.01249100      -5.28869100       3.05838900
O       -1.05847700      -3.87521800       3.18637500
C       -0.49547700      -3.05209000       2.17548900
O        0.04956600      -3.58044800       1.15619900
C       -0.54470100      -1.53907700       2.31248800
C       -1.87100800      -0.92651100       1.86791800
C       -2.32031500      -1.54428000       0.54503500
C       -1.20531200      -1.47008200      -0.48491600
N        0.00000000      -2.14000000       0.00000000
C        0.48497900      -1.45730400       1.20641400
H       -2.76448500      -5.38696000       1.84991100
H       -1.71036500      -6.77212300       1.69751700
H       -1.27585800      -5.25653900       0.94434600
H       -1.48164900      -5.73919600       3.90799800
H        0.00697800      -5.60877300       3.00243300
H       -0.41096200      -1.07521200       3.26739300
H       -2.61294100      -1.12112000       2.61394900
H       -1.74813200       0.12886200       1.74146900
H       -2.56964000      -2.57155900       0.71066700
H       -3.17299700      -1.01119700       0.17944700
H       -1.53243800      -1.96040400      -1.37793000
H       -0.97940800      -0.44311200      -0.68290700
H        0.72033200      -2.10897800      -0.72149800
H        0.66169600      -0.42794300       0.97384900
H        1.39114800      -1.92258000       1.53394600
C       -5.70704200       1.92297600       1.60172500
C       -5.28869100       1.32663300       2.93580100
O       -3.87521800       1.38574600       3.05827900
C       -3.05209000       0.72016300       2.11178000
O       -3.58044800       0.07156100       1.15504600
C       -1.53907700       0.78343800       2.24288400
C       -0.92651100       2.05600900       1.66211100
C       -1.54428000       2.36457500       0.29951000
C       -1.47008200       1.14802100      -0.60824900
N       -2.14000000       0.00000000       0.00000000
C       -1.45730400      -0.35621800       1.25049900
H       -5.38696000       2.94270900       1.55081000
H       -6.77212300       1.87843500       1.50943600
H       -5.25653900       1.36758000       0.80580900
H       -5.73919600       1.88203000       3.73171500
H       -5.60877300       0.30690000       2.98671500
H       -1.07521200       0.75024600       3.20653700
H       -1.12112000       2.87185900       2.32650300
H        0.12886200       1.92058800       1.54919900
H       -2.57155900       2.62984900       0.43817300
H       -1.01119700       3.17437300      -0.15320400
H       -1.96040400       1.38001000      -1.53056500
H       -0.44311200       0.90266000      -0.78154200
H       -2.10897800      -0.79180300      -0.64225000
H       -0.42794300      -0.55627600       1.03768000
H       -1.92258000      -1.22318600       1.67095700
C        1.97770400      -1.53363800       5.70704200
C        1.42828300      -2.88771300       5.28869100
O        1.49163400      -3.00805400       3.87521800
C        0.79342400      -2.08536100       3.05209000
O        0.11182800      -1.15184500       3.58044800
C        0.86123600      -2.21417600       1.53907700
C        2.11276400      -1.58934500       0.92651100
C        2.37358800      -0.21680500       1.54428000
C        1.12609400       0.64794400       1.47008200
N        0.00000000       0.00000000       2.14000000
C       -0.31235900      -1.26217000       1.45730400
H        2.99503900      -1.44716600       5.38696000
H        1.92996900      -1.44296000       6.77212300
H        1.39486900      -0.75759100       5.25653900
H        2.01111800      -3.66376000       5.73919600
H        0.41094800      -2.97418500       5.60877300
H        0.86169600      -3.17840000       1.07521200
H        2.95130400      -2.22485900       1.12112000
H        1.97348500      -1.48122800      -0.12886200
H        2.64353900      -0.34612600       2.57155900
H        3.16709200       0.26389500       1.01119700
H        1.32575300       1.57779400       1.96040400
H        0.87483400       0.81256800       0.44311200
H       -0.81373500       0.61422500       2.10897800
H       -0.51972300      -1.05646200       0.42794300
H       -1.16412500      -1.71262800       1.92258000
C       -1.07897100      -2.25813700      -5.70704200
C        0.01975000      -3.22156700      -5.28869100
O        0.01715100      -3.35753900      -3.87521800
C        0.22695200      -2.21962700      -3.05209000
O        0.41705000      -1.07950100      -3.58044800
C        0.22417000      -2.36517400      -1.53907700
C       -1.17465900      -2.36853600      -0.92651100
C       -2.02377200      -1.25907600      -1.54428000
C       -1.29711400       0.07359100      -1.47008200
N        0.00000000      -0.00000000      -2.14000000
C        0.84562800      -0.98770100      -1.45730400
H       -2.02689100      -2.63747300      -5.38696000
H       -1.07701300      -2.15568000      -6.77212300
H       -0.90645100      -1.30305400      -5.25653900
H       -0.15277000      -4.17664900      -5.73919600
H        0.96766900      -2.84223000      -5.60877300
H        0.65653100      -3.22702900      -1.07521200
H       -1.63875600      -3.31280400      -1.12112000
H       -1.09872300      -2.20940900       0.12886200
H       -2.20696200      -1.49580000      -2.57155900
H       -2.94861300      -1.18566100      -1.01119700
H       -1.89287600       0.81490900      -1.96040400
H       -1.14647200       0.33347500      -0.44311200
H        0.45148600       0.91411000      -2.10897800
H        0.93860400      -0.71080600      -0.42794300
H        1.80896000      -1.00794200      -1.92258000
