67
10/18/2025 13:55, XYZ structure generated by mol3D Class, molSimplify
Ni 	0.000000	0.000000	0.000000
F 	-2.297005	2.009565	0.009592
C 	-1.177341	2.727377	0.009567
C 	-1.222044	4.117271	0.019653
C 	-0.079882	4.782087	0.519059
C 	1.150301	4.187280	0.244476
C 	1.177341	2.896085	-0.009567
F 	2.337121	2.303208	-0.278465
N 	-0.000000	2.140000	0.000000
H 	-2.077219	4.655321	-0.332593
H 	-0.155097	5.691879	1.077201
H 	2.050351	4.765893	0.240298
F 	2.009565	-0.565003	2.226453
C 	2.727377	-0.294108	1.140055
C 	4.117271	-0.314708	1.180989
C 	4.782087	-0.522966	-0.048063
C 	4.187280	0.041069	-1.175277
C 	2.896085	0.294108	-1.140055
F 	2.303208	0.835594	-2.200332
N 	2.140000	0.000000	0.000000
H 	4.655321	-0.179812	2.095978
H 	5.691879	-1.082725	-0.110108
H 	4.765893	0.262865	-2.047581
F 	-0.565003	-2.009565	2.226453
C 	-0.294108	-2.727377	1.140055
C 	-0.314708	-4.117271	1.180989
C 	-0.522966	-4.782087	-0.048063
C 	0.041069	-4.187280	-1.175277
C 	0.294108	-2.896085	-1.140055
F 	0.835594	-2.303208	-2.200332
N 	0.000000	-2.140000	0.000000
H 	-0.179812	-4.655321	2.095978
H 	-1.082725	-5.691879	-0.110108
H 	0.262865	-4.765893	-2.047581
F 	-2.009565	0.718936	2.181617
C 	-2.727377	0.372917	1.116762
C 	-4.117271	0.396323	1.156160
C 	-4.782087	0.518340	-0.084426
C 	-4.187280	-0.122952	-1.169549
C 	-2.896085	-0.372917	-1.116762
F 	-2.303208	-0.987046	-2.136684
N 	-2.140000	0.000000	0.000000
H 	-4.655321	0.325582	2.078330
H 	-5.691879	1.072406	-0.185367
H 	-4.765893	-0.405056	-2.024256
F 	-2.023632	-1.086848	2.009565
C 	-1.035039	-0.561176	2.727377
C 	-1.069774	-0.591067	4.117271
C 	0.173152	-0.495804	4.782087
C 	1.130430	0.324174	4.187280
C 	1.035039	0.561176	2.896085
F 	1.932824	1.343082	2.303208
N 	0.000000	0.000000	2.140000
H 	-1.990218	-0.681533	4.655321
H 	0.368772	-1.023926	5.691879
H 	1.923166	0.750411	4.765893
F 	2.065183	-1.005656	-2.009565
C 	1.056501	-0.519644	-2.727377
C 	1.092395	-0.548133	-4.117271
C 	-0.153333	-0.502287	-4.782087
C 	-1.142408	0.279043	-4.187280
C 	-1.056501	0.519644	-2.896085
F 	-1.984619	1.265293	-2.303208
N 	0.000000	-0.000000	-2.140000
H 	2.015705	-0.601988	-4.655321
H 	-0.327833	-1.037758	-5.691879
H 	-1.951440	0.673473	-4.765893
