34
10/18/2025 13:23, XYZ structure generated by mol3D Class, molSimplify
Ni 	0.000000	0.000000	0.000000
S 	0.000000	2.230000	0.000000
C 	1.578721	1.772141	0.023588
N 	1.760911	0.469089	0.000000
C 	3.054452	0.047857	0.018357
C 	4.172311	0.795402	0.057614
C 	3.988433	2.222108	0.083770
C 	2.740998	2.713944	0.067868
H 	3.231906	-1.027636	-0.000542
H 	5.163749	0.365374	0.069429
H 	4.854845	2.866780	0.115570
H 	2.539559	3.775654	0.085973
S 	0.000000	-2.230000	0.000000
C 	0.023588	-1.772141	1.578721
N 	-0.000000	-0.469089	1.760911
C 	0.018357	-0.047857	3.054452
C 	0.057614	-0.795402	4.172311
C 	0.083770	-2.222108	3.988433
C 	0.067868	-2.713944	2.740998
H 	-0.000542	1.027636	3.231906
H 	0.069429	-0.365374	5.163749
H 	0.115570	-2.866780	4.854845
H 	0.085973	-3.775654	2.539559
S 	-2.230000	0.000000	0.000000
C 	-1.772141	0.023588	-1.578721
N 	-0.469089	-0.000000	-1.760911
C 	-0.047857	0.018357	-3.054452
C 	-0.795402	0.057614	-4.172311
C 	-2.222108	0.083770	-3.988433
C 	-2.713944	0.067868	-2.740998
H 	1.027636	-0.000542	-3.231906
H 	-0.365374	0.069429	-5.163749
H 	-2.866780	0.115570	-4.854845
H 	-3.775654	0.085973	-2.539559
