19
10/05/2025 00:00, XYZ structure generated by mol3D Class, molSimplify
Fe 	0.000000	0.000000	0.000000
O 	0.000000	2.120000	0.000000
H 	0.685027	2.726198	-0.379294
H 	-0.685027	2.726184	0.379294
O 	2.120000	0.000000	0.000000
H 	2.726198	-0.671373	-0.402970
H 	2.726184	0.671373	0.402970
O 	0.000000	-2.120000	0.000000
H 	-0.656900	-2.726198	-0.426155
H 	0.656900	-2.726184	0.426155
O 	-2.120000	0.000000	0.000000
H 	-2.726198	0.641627	-0.448821
H 	-2.726184	-0.641627	0.448821
O 	0.000000	0.000000	2.120000
H 	-0.470940	0.625573	2.726198
H 	0.470940	-0.625573	2.726184
O 	0.000000	0.000000	-2.120000
H 	0.492486	0.608756	-2.726198
H 	-0.492486	-0.608756	-2.726184
