61
10/18/2025 13:56, XYZ structure generated by mol3D Class, molSimplify
Ni 	0.000000	0.000000	0.000000
C 	-0.830159	4.400888	-0.004866
C 	0.470978	4.881081	-0.010915
C 	1.536013	3.978656	-0.011465
C 	1.277797	2.605598	-0.005923
N 	0.000000	2.140000	-0.000000
C 	-1.013100	3.031822	0.000409
C 	2.326339	1.557056	-0.005928
C 	3.699395	1.815282	-0.011486
C 	4.601827	0.750254	-0.010946
C 	4.121642	-0.550886	-0.004890
C 	2.752577	-0.733838	0.000399
N 	1.860745	0.279255	-0.000000
H 	-1.679659	5.073842	-0.004271
H 	0.659993	5.950821	-0.015194
H 	2.545806	4.370265	-0.016225
H 	-2.007958	2.596368	0.005266
H 	4.090996	2.825078	-0.016252
H 	5.671565	0.939276	-0.015235
H 	4.794602	-1.400381	-0.004302
H 	2.317131	-1.728700	0.005262
C 	-0.004866	-4.400888	-0.830159
C 	-0.010915	-4.881081	0.470978
C 	-0.011465	-3.978656	1.536013
C 	-0.005923	-2.605598	1.277797
N 	-0.000000	-2.140000	0.000000
C 	0.000409	-3.031822	-1.013100
C 	-0.005928	-1.557056	2.326339
C 	-0.011486	-1.815282	3.699395
C 	-0.010946	-0.750254	4.601827
C 	-0.004890	0.550886	4.121642
C 	0.000399	0.733838	2.752577
N 	-0.000000	-0.279255	1.860745
H 	-0.004271	-5.073842	-1.679659
H 	-0.015194	-5.950821	0.659993
H 	-0.016225	-4.370265	2.545806
H 	0.005266	-2.596368	-2.007958
H 	-0.016252	-2.825078	4.090996
H 	-0.015235	-0.939276	5.671565
H 	-0.004302	1.400381	4.794602
H 	0.005262	1.728700	2.317131
C 	-4.400888	-0.004866	0.830159
C 	-4.881081	-0.010915	-0.470978
C 	-3.978656	-0.011465	-1.536013
C 	-2.605598	-0.005923	-1.277797
N 	-2.140000	0.000000	0.000000
C 	-3.031822	0.000409	1.013100
C 	-1.557056	-0.005928	-2.326339
C 	-1.815282	-0.011486	-3.699395
C 	-0.750254	-0.010946	-4.601827
C 	0.550886	-0.004890	-4.121642
C 	0.733838	0.000399	-2.752577
N 	-0.279255	-0.000000	-1.860745
H 	-5.073842	-0.004271	1.679659
H 	-5.950821	-0.015194	-0.659993
H 	-4.370265	-0.016225	-2.545806
H 	-2.596368	0.005266	2.007958
H 	-2.825078	-0.016252	-4.090996
H 	-0.939276	-0.015235	-5.671565
H 	1.400381	-0.004302	-4.794602
H 	1.728700	0.005262	-2.317131
