61
10/18/2025 23:27, XYZ structure generated by mol3D Class, molSimplify
Ni 	0.000000	0.000000	0.000000
N 	4.228021	0.790920	-0.028506
C 	2.909026	1.065282	-0.067346
N 	2.140000	0.000000	0.000000
C 	3.039153	-1.065282	0.067346
C 	2.805126	-2.430468	0.179490
C 	3.893719	-3.266015	0.260932
C 	5.187047	-2.777008	0.210008
C 	5.441620	-1.424820	0.100848
C 	4.348517	-0.587448	0.040318
H 	4.990762	1.467904	-0.046352
H 	2.522235	2.059830	-0.145873
H 	1.808505	-2.819249	0.201758
H 	3.737180	-4.319257	0.366175
H 	6.007747	-3.461998	0.256256
H 	6.441048	-1.044358	0.064890
N 	-0.728110	4.227084	0.322714
C 	-0.062302	3.063483	0.461504
N 	-0.713377	2.017596	-0.000000
C 	-1.920545	2.544471	-0.461504
C 	-2.996302	1.915883	-1.076889
C 	-4.060818	2.694130	-1.465402
C 	-4.082473	4.058265	-1.235001
C 	-3.023874	4.702580	-0.627252
C 	-1.948872	3.923256	-0.257444
H 	-0.396890	5.153211	0.592863
H 	0.908287	2.996404	0.906877
H 	-2.996063	0.858883	-1.243177
H 	-4.892158	2.234151	-1.957533
H 	-4.938508	4.626081	-1.534484
H 	-3.037155	5.757945	-0.451389
N 	-1.035647	-1.465939	3.909090
C 	-0.442195	-0.677345	2.991231
N 	-0.713375	-1.008786	1.747297
C 	-1.540648	-2.126599	1.865421
C 	-2.160196	-2.891294	0.884361
C 	-2.960677	-3.932904	1.289435
C 	-3.132994	-4.235099	2.628615
C 	-2.528532	-3.487359	3.618890
C 	-1.743148	-2.430790	3.210765
H 	-0.975432	-1.370668	4.922844
H 	0.192282	0.144197	3.250859
H 	-2.018575	-2.676034	-0.154151
H 	-3.462250	-4.523820	0.551775
H 	-3.748241	-5.066566	2.902538
H 	-2.663375	-3.717232	4.655170
N 	-1.203029	-2.688219	-3.135080
C 	-0.665256	-2.306211	-1.959750
N 	-0.713375	-1.008786	-1.747297
C 	-1.317587	-0.497733	-2.896901
C 	-1.653406	0.809464	-3.227870
C 	-2.281288	1.028231	-4.431078
C 	-2.554350	-0.009644	-5.304388
C 	-2.231075	-1.315222	-4.994398
C 	-1.620404	-1.534468	-3.778361
H 	-1.286623	-3.643094	-3.483829
H 	-0.237739	-2.995965	-1.262349
H 	-1.430187	1.620577	-2.566682
H 	-2.565505	2.024522	-4.698518
H 	-3.026409	0.204500	-6.240445
H 	-2.444602	-2.119680	-5.666821
