57
10/18/2025 13:53, XYZ structure generated by mol3D Class, molSimplify
Ni 	0.000000	0.000000	0.000000
N 	2.140000	0.000000	0.000000
C 	3.488003	0.000000	-0.000000
C 	4.205794	1.083400	0.527368
C 	5.588800	1.083747	0.524257
C 	6.280992	-0.007317	0.003267
C 	5.582193	-1.095687	-0.525381
C 	4.204234	-1.078332	-0.540330
H 	1.630000	0.794247	0.386616
H 	1.630000	-0.794247	-0.386616
H 	3.677491	1.919016	0.936687
H 	6.125828	1.919874	0.920984
H 	7.350972	-0.011834	0.007980
H 	6.113918	-1.937870	-0.916399
H 	3.672117	-1.900667	-0.971046
N 	-0.713377	2.017596	0.000000
C 	-1.162738	3.288496	-0.000000
C 	-0.585448	4.253950	0.837693
C 	-1.049122	5.556916	0.839083
C 	-2.093256	5.921921	-0.007993
C 	-2.679614	4.973403	-0.849918
C 	-2.227915	3.671557	-0.828497
H 	0.055265	1.748430	0.614117
H 	-1.141997	1.325105	-0.614117
H 	0.222748	3.979356	1.482919
H 	-0.607049	6.282832	1.489096
H 	-2.447219	6.931661	-0.013850
H 	-3.474855	5.256208	-1.507575
H 	-2.697290	2.941197	-1.453926
N 	-0.713375	-1.008786	1.747297
C 	-1.162736	-1.644228	2.847933
C 	-0.612272	-1.372100	4.108897
C 	-1.071991	-2.026703	5.237112
C 	-2.101323	-2.959007	5.126368
C 	-2.662108	-3.241896	3.878236
C 	-2.182566	-2.602929	2.755270
H 	0.035599	-0.320819	1.825653
H 	-1.122330	-1.215929	0.836117
H 	0.172131	-0.649959	4.199032
H 	-0.638205	-1.817649	6.192636
H 	-2.463526	-3.459917	5.999751
H 	-3.459373	-3.950631	3.794783
H 	-2.594810	-2.841969	1.797243
N 	-0.713375	-1.008786	-1.747297
C 	-1.162736	-1.644228	-2.847933
C 	-2.504103	-2.040881	-2.950398
C 	-2.963497	-2.695369	-4.078811
C 	-2.090483	-2.955175	-5.133006
C 	-0.751082	-2.566329	-5.048491
C 	-0.295211	-1.935730	-3.911028
H 	-1.351313	-0.811106	-0.976350
H 	0.264582	-0.725642	-1.685420
H 	-3.179576	-1.834821	-2.146548
H 	-3.986841	-3.001425	-4.142034
H 	-2.446757	-3.453989	-6.010020
H 	-0.083095	-2.757083	-5.862313
H 	0.737129	-1.664096	-3.837621
