103
10/18/2025 13:55, XYZ structure generated by mol3D Class, molSimplify
Ni 	0.000000	0.000000	0.000000
C 	-0.661470	3.353489	-2.559736
C 	-1.717094	2.740923	-1.641917
C 	-1.285751	2.822696	-0.193612
N 	0.000000	2.140000	0.000000
C 	1.029056	2.809918	-0.793072
C 	0.706585	2.735720	-2.276326
H 	-0.928360	3.158880	-3.577477
H 	-0.614775	4.408862	-2.389714
H 	-2.629964	3.286833	-1.758325
H 	-1.859388	1.714282	-1.907738
H 	-1.174884	3.852057	0.076617
H 	-2.027486	2.357420	0.421405
H 	0.256694	2.171022	0.986684
H 	1.964641	2.319596	-0.622289
H 	1.085184	3.836888	-0.497975
H 	0.690224	1.708441	-2.575207
H 	1.454006	3.268803	-2.825948
C 	3.353489	-1.341405	2.278250
C 	2.740923	-2.103150	1.105016
C 	2.822696	-1.289310	-0.168289
N 	2.140000	0.000000	0.000000
C 	2.809918	0.770592	1.045996
C 	2.735720	0.051772	2.382906
H 	3.158880	-1.878483	3.183001
H 	4.408862	-1.249654	2.127685
H 	3.286833	-3.012744	0.965294
H 	1.714282	-2.313202	1.321318
H 	3.852057	-1.108253	-0.397491
H 	2.357420	-1.832790	-0.963932
H 	2.171022	0.518717	-0.877707
H 	2.319596	1.717008	1.139711
H 	3.836888	0.905885	0.777801
H 	1.708441	-0.046337	2.665699
H 	3.268803	0.618743	3.117254
C 	-2.621137	-3.353489	0.345590
C 	-2.165593	-2.740923	-0.976989
C 	-0.661165	-2.822696	-1.119599
N 	-0.000000	-2.140000	0.000000
C 	-0.349832	-2.809918	1.251214
C 	-1.845882	-2.735720	1.507861
H 	-3.664748	-3.158880	0.479386
H 	-2.446003	-4.408862	0.325193
H 	-2.615492	-3.286833	-1.779780
H 	-2.465363	-1.714282	-1.009343
H 	-0.369081	-3.852057	-1.118035
H 	-0.368789	-2.357420	-2.037714
H 	1.010997	-2.171022	-0.131616
H 	0.158991	-2.319596	2.054697
H 	-0.055197	-3.836888	1.192709
H 	-2.129128	-1.708441	1.604654
H 	-2.075493	-3.268803	2.406749
C 	-3.353489	0.661470	2.559736
C 	-2.740923	1.717094	1.641917
C 	-2.822696	1.285751	0.193612
N 	-2.140000	0.000000	0.000000
C 	-2.809918	-1.029056	0.793072
C 	-2.735720	-0.706585	2.276326
H 	-3.158880	0.928360	3.577477
H 	-4.408862	0.614775	2.389714
H 	-3.286833	2.629964	1.758325
H 	-1.714282	1.859388	1.907738
H 	-3.852057	1.174884	-0.076617
H 	-2.357420	2.027486	-0.421405
H 	-2.171022	-0.256694	-0.986684
H 	-2.319596	-1.964641	0.622289
H 	-3.836888	-1.085184	0.497975
H 	-1.708441	-0.690224	2.575207
H 	-3.268803	-1.454006	2.825948
C 	1.917412	-1.820253	3.353489
C 	2.326262	-0.482503	2.740923
C 	1.192977	0.517151	2.822696
N 	0.000000	0.000000	2.140000
C 	-0.452425	-1.217880	2.809918
C 	0.607051	-2.304867	2.735720
H 	2.683068	-2.541916	3.158880
H 	1.787714	-1.700811	4.408862
H 	3.162106	-0.097476	3.286833
H 	2.587797	-0.632528	1.714282
H 	0.955757	0.687569	3.852057
H 	1.496095	1.431776	2.357420
H 	-0.740552	0.700729	2.171022
H 	-1.336347	-1.568832	2.319596
H 	-0.656402	-0.997366	3.836888
H 	0.779309	-2.549662	1.708441
H 	0.264457	-3.167045	3.268803
C 	-2.457921	-0.973866	-3.353489
C 	-2.338382	0.419850	-2.740923
C 	-0.914049	0.924745	-2.822696
N 	0.000000	-0.000000	-2.140000
C 	-0.034404	-1.298744	-2.809918
C 	-1.422822	-1.912198	-2.735720
H 	-3.437474	-1.357927	-3.158880
H 	-2.293035	-0.911410	-4.408862
H 	-2.970336	1.088816	-3.286833
H 	-2.636999	0.378184	-1.714282
H 	-0.630388	0.994401	-3.852057
H 	-0.854204	1.886430	-2.357420
H 	0.948453	0.373999	-2.171022
H 	0.654867	-1.954023	-2.319596
H 	0.237095	-1.170209	-3.836888
H 	-1.673945	-2.075092	-1.708441
H 	-1.426480	-2.839941	-3.268803
