70
10/18/2025 23:17, XYZ structure generated by mol3D Class, molSimplify
Ni 	0.000000	0.000000	0.000000
C 	0.782965	-0.375726	0.422120
N 	2.140000	0.000000	0.000000
C 	2.834709	-0.788395	-1.027965
C 	2.802326	1.164120	0.605845
C 	2.731890	1.311174	1.977033
C 	3.295676	2.431238	2.563163
C 	3.947295	3.402448	1.815778
C 	4.522673	4.620986	2.477530
C 	4.006221	3.215522	0.430213
C 	3.456041	2.119981	-0.172363
H 	0.466540	-1.240501	-0.122800
H 	0.111614	0.434257	0.226887
H 	0.782965	-0.594420	1.469533
H 	3.067643	-0.160291	-1.862308
H 	3.738992	-1.188969	-0.619661
H 	2.203165	-1.589790	-1.350173
H 	2.248268	0.569681	2.578031
H 	3.227104	2.551960	3.624118
H 	5.571424	4.676431	2.272718
H 	4.038210	5.495839	2.096968
H 	4.368474	4.559175	3.534555
H 	4.495599	3.950811	-0.173739
H 	3.525877	1.995877	-1.232845
C 	-0.434460	0.676598	0.610225
N 	-1.070000	1.853294	-0.000000
C 	-2.025064	2.657848	0.775529
C 	-0.750477	2.225436	-1.385754
C 	-0.717148	1.224348	-2.336255
C 	-0.359035	1.541778	-3.635079
C 	-0.050920	2.840439	-4.015848
C 	0.362899	3.148008	-5.425800
C 	-0.103505	3.829829	-3.027646
C 	-0.452077	3.541896	-1.738616
H 	-0.785269	0.562425	1.614614
H 	0.627473	0.807607	0.616059
H 	-0.682979	-0.196747	0.044180
H 	-1.664173	3.662072	0.854219
H 	-2.974625	2.657715	0.282341
H 	-2.131579	2.239383	1.754530
H 	-0.964682	0.217352	-2.072464
H 	-0.318525	0.762730	-4.367434
H 	-0.306899	3.869649	-5.844734
H 	1.357885	3.541582	-5.427687
H 	0.332654	2.252007	-6.009895
H 	0.135861	4.839469	-3.288861
H 	-0.495923	4.319852	-1.005293
C 	-0.554230	-0.769371	0.848523
N 	-1.070000	-1.853294	0.000000
C 	-0.844302	-1.820663	-1.452204
C 	-1.811469	-2.969849	0.603680
C 	-2.778494	-2.674737	1.544165
C 	-3.446712	-3.712734	2.170263
C 	-3.187715	-5.042198	1.867135
C 	-3.908184	-6.146420	2.585068
C 	-2.207325	-5.302669	0.903188
C 	-1.532547	-4.296192	0.272566
H 	-0.045884	-0.051056	0.239829
H 	0.127085	-1.173112	1.568039
H 	-1.368466	-0.294965	1.355335
H 	-0.290833	-2.687750	-1.746708
H 	-1.786384	-1.809600	-1.959410
H 	-0.291405	-0.940885	-1.707538
H 	-3.008065	-1.657916	1.785564
H 	-4.184976	-3.483374	2.910033
H 	-4.426930	-6.755067	1.874187
H 	-3.200673	-6.745893	3.118884
H 	-4.610451	-5.725311	3.273828
H 	-1.980028	-6.317938	0.653259
H 	-0.795874	-4.523220	-0.469505
